[General]
network = ARQ1
sim-time-limit = 10s
**.destination.prob = 0.1