[General]
network = ARQ1
sim-time-limit = 10s
